DSS_Fox_chase/LineCodes.dss
// Service Drop Line Codes
New Linecode.1P_UG_AL_1/0_Brenau_2 units=km nphases=2 Faultrate=0.1 Rmatrix=(0.9149 0.3744 | 0.3744 0.9149 ) Xmatrix=(0.4972667 0.3969667 | 0.3969667 0.4972667 ) Cmatrix=(36.4998 -16.313099999999995 | -16.313099999999995 36.4998 ) normamps=205.0

// Lateral Line Code
New Linecode.1P_OH_AL_4/0_Zuzara_2 units=km nphases=2 Faultrate=0.1 Rmatrix=(0.4728 0.20209999999999997 | 0.20209999999999997 0.4728 ) Xmatrix=(0.21353333333333335 0.12473333333333335 | 0.12473333333333335 0.21353333333333335 ) Cmatrix=(41.3578 -20.447400000000002 | -20.447400000000002 41.3578 ) normamps=115.0

// Three-Phase feeder line code
New Linecode.3P_OH_AL_ACSR_4/0_Penguin_3 units=km nphases=3 Faultrate=0.1 Rmatrix=(0.3635667 0.09006667 0.09006667 | 0.09006667 0.3635667 0.09006667 | 0.09006667 0.09006667 0.3635667 ) Xmatrix=(0.6385333 0.2202333 0.2202333 | 0.2202333 0.6385333 0.2202333 | 0.2202333 0.2202333 0.6385333 ) Cmatrix=(7.448267 -3.1846329999999994 -3.1846329999999994 | -3.1846329999999994 7.448267 -3.1846329999999994 | -3.1846329999999994 -3.1846329999999994 7.448267 ) normamps=325.0
