DSS_Fox_chase/Lines.dss
// feeder lines
New Line.l(source_to_benson) Units=km Bus1=source_bus.1.2.3 Bus2=benson_tap.1.2.3 Length=0.2258568 Phases=3 Linecode=3P_OH_AL_ACSR_4/0_Penguin_3 
New Line.l(benson_to_hoffnagle) Units=km Bus1=benson_tap.1.2.3 Bus2=hoffnagle_tap.1.2.3 Length=0.0850392 Phases=3 Linecode=3P_OH_AL_ACSR_4/0_Penguin_3 

// lateral lines
New Line.l(lateral_b9_b10) Units=km Bus1=b9.2.0 Bus2=b10.2.0 Length=0.045071287923717326 Phases=1 Linecode=1P_OH_AL_4/0_Zuzara_2 
New Line.l(lateral_h9_h10) Units=km Bus1=h9.1.0 Bus2=h10.1.0 Length=0.04978400044379067 Phases=1 Linecode=1P_OH_AL_4/0_Zuzara_2 
New Line.l(lateral_benson_tap_b1) Units=km Bus1=benson_tap.2.0 Bus2=b1.2.0 Length=0.0449464445339535 Phases=1 Linecode=1P_OH_AL_4/0_Zuzara_2 
New Line.l(lateral_b1_b2) Units=km Bus1=b1.2.0 Bus2=b2.2.0 Length=0.07087013875528908 Phases=1 Linecode=1P_OH_AL_4/0_Zuzara_2 
New Line.l(lateral_b2_b3) Units=km Bus1=b2.2.0 Bus2=b3.2.0 Length=0.07496287665936582 Phases=1 Linecode=1P_OH_AL_4/0_Zuzara_2 
New Line.l(lateral_b3_b4) Units=km Bus1=b3.2.0 Bus2=b4.2.0 Length=0.0550339861883482 Phases=1 Linecode=1P_OH_AL_4/0_Zuzara_2 
New Line.l(lateral_b4_b5) Units=km Bus1=b4.2.0 Bus2=b5.2.0 Length=0.0563827157592929 Phases=1 Linecode=1P_OH_AL_4/0_Zuzara_2 
New Line.l(lateral_b6_b7) Units=km Bus1=b6.2.0 Bus2=b7.2.0 Length=0.07351737476897012 Phases=1 Linecode=1P_OH_AL_4/0_Zuzara_2 
New Line.l(lateral_b7_b8) Units=km Bus1=b7.2.0 Bus2=b8.2.0 Length=0.04747696324401948 Phases=1 Linecode=1P_OH_AL_4/0_Zuzara_2 
New Line.l(lateral_b8_b9) Units=km Bus1=b8.2.0 Bus2=b9.2.0 Length=0.03637826068792591 Phases=1 Linecode=1P_OH_AL_4/0_Zuzara_2 
New Line.l(lateral_b5_b6) Units=km Bus1=b5.2.0 Bus2=b6.2.0 Length=0.04655951643936858 Phases=1 Linecode=1P_OH_AL_4/0_Zuzara_2 
New Line.l(lateral_hoffnagle_tap_h1) Units=km Bus1=hoffnagle_tap.1.0 Bus2=h1.1.0 Length=0.060266362055622885 Phases=1 Linecode=1P_OH_AL_4/0_Zuzara_2 
New Line.l(lateral_h1_h2) Units=km Bus1=h1.1.0 Bus2=h2.1.0 Length=0.07484846159624946 Phases=1 Linecode=1P_OH_AL_4/0_Zuzara_2 
New Line.l(lateral_h2_h3) Units=km Bus1=h2.1.0 Bus2=h3.1.0 Length=0.07238586442595915 Phases=1 Linecode=1P_OH_AL_4/0_Zuzara_2 
New Line.l(lateral_h3_h4) Units=km Bus1=h3.1.0 Bus2=h4.1.0 Length=0.04986018732892071 Phases=1 Linecode=1P_OH_AL_4/0_Zuzara_2 
New Line.l(lateral_h4_h5) Units=km Bus1=h4.1.0 Bus2=h5.1.0 Length=0.04453897729007239 Phases=1 Linecode=1P_OH_AL_4/0_Zuzara_2 
New Line.l(lateral_h5_h6) Units=km Bus1=h5.1.0 Bus2=h6.1.0 Length=0.046621129990420715 Phases=1 Linecode=1P_OH_AL_4/0_Zuzara_2 
New Line.l(lateral_h6_h7) Units=km Bus1=h6.1.0 Bus2=h7.1.0 Length=0.054657015757735204 Phases=1 Linecode=1P_OH_AL_4/0_Zuzara_2 
New Line.l(lateral_h7_h8) Units=km Bus1=h7.1.0 Bus2=h8.1.0 Length=0.05602050438388622 Phases=1 Linecode=1P_OH_AL_4/0_Zuzara_2 
New Line.l(lateral_h8_h9) Units=km Bus1=h8.1.0 Bus2=h9.1.0 Length=0.03722735878862186 Phases=1 Linecode=1P_OH_AL_4/0_Zuzara_2 
// secondary lines
New Line.l(service_drop_house49) Units=km Bus1=b1lv.1.2 Bus2=house_49.1.2 Length=0.032523751781413174 Phases=2 Linecode=1P_UG_AL_1/0_Brenau_2 
New Line.l(service_drop_house60) Units=km Bus1=b1lv.1.2 Bus2=house_60.1.2 Length=0.03236431336328055 Phases=2 Linecode=1P_UG_AL_1/0_Brenau_2 
New Line.l(service_drop_house48) Units=km Bus1=b1lv.1.2 Bus2=house_48.1.2 Length=0.027604391054148778 Phases=2 Linecode=1P_UG_AL_1/0_Brenau_2 
New Line.l(service_drop_house13) Units=km Bus1=b1lv.1.2 Bus2=house_13.1.2 Length=0.025487146925118255 Phases=2 Linecode=1P_UG_AL_1/0_Brenau_2 
New Line.l(service_drop_house8) Units=km Bus1=b1lv.1.2 Bus2=house_8.1.2 Length=0.03474043458233904 Phases=2 Linecode=1P_UG_AL_1/0_Brenau_2 
New Line.l(service_drop_house23) Units=km Bus1=b1lv.1.2 Bus2=house_23.1.2 Length=0.03140876456110225 Phases=2 Linecode=1P_UG_AL_1/0_Brenau_2 
New Line.l(service_drop_house103) Units=km Bus1=b2lv.1.2 Bus2=house_103.1.2 Length=0.03623652928409256 Phases=2 Linecode=1P_UG_AL_1/0_Brenau_2 
New Line.l(service_drop_house57) Units=km Bus1=b2lv.1.2 Bus2=house_57.1.2 Length=0.025868221855268887 Phases=2 Linecode=1P_UG_AL_1/0_Brenau_2 
New Line.l(service_drop_house53) Units=km Bus1=b2lv.1.2 Bus2=house_53.1.2 Length=0.030621447033505222 Phases=2 Linecode=1P_UG_AL_1/0_Brenau_2 
New Line.l(service_drop_house20) Units=km Bus1=b2lv.1.2 Bus2=house_20.1.2 Length=0.03634618922725088 Phases=2 Linecode=1P_UG_AL_1/0_Brenau_2 
New Line.l(service_drop_house47) Units=km Bus1=b2lv.1.2 Bus2=house_47.1.2 Length=0.027043881459686153 Phases=2 Linecode=1P_UG_AL_1/0_Brenau_2 
New Line.l(service_drop_house105) Units=km Bus1=b2lv.1.2 Bus2=house_105.1.2 Length=0.03038255863888351 Phases=2 Linecode=1P_UG_AL_1/0_Brenau_2 
New Line.l(service_drop_house56) Units=km Bus1=b2lv.1.2 Bus2=house_56.1.2 Length=0.0419797152761077 Phases=2 Linecode=1P_UG_AL_1/0_Brenau_2 
New Line.l(service_drop_house69) Units=km Bus1=b3lv.1.2 Bus2=house_69.1.2 Length=0.043094515618913906 Phases=2 Linecode=1P_UG_AL_1/0_Brenau_2 
New Line.l(service_drop_house93) Units=km Bus1=b3lv.1.2 Bus2=house_93.1.2 Length=0.021003752938399928 Phases=2 Linecode=1P_UG_AL_1/0_Brenau_2 
New Line.l(service_drop_house43) Units=km Bus1=b3lv.1.2 Bus2=house_43.1.2 Length=0.0434253440601647 Phases=2 Linecode=1P_UG_AL_1/0_Brenau_2 
New Line.l(service_drop_house85) Units=km Bus1=b3lv.1.2 Bus2=house_85.1.2 Length=0.03178634189021161 Phases=2 Linecode=1P_UG_AL_1/0_Brenau_2 
New Line.l(service_drop_house82) Units=km Bus1=b3lv.1.2 Bus2=house_82.1.2 Length=0.02486288600954247 Phases=2 Linecode=1P_UG_AL_1/0_Brenau_2 
New Line.l(service_drop_house117) Units=km Bus1=b4lv.1.2 Bus2=house_117.1.2 Length=0.025878142234088172 Phases=2 Linecode=1P_UG_AL_1/0_Brenau_2 
New Line.l(service_drop_house30) Units=km Bus1=b4lv.1.2 Bus2=house_30.1.2 Length=0.04224080835657363 Phases=2 Linecode=1P_UG_AL_1/0_Brenau_2 
New Line.l(service_drop_house37) Units=km Bus1=b4lv.1.2 Bus2=house_37.1.2 Length=0.027602795205718653 Phases=2 Linecode=1P_UG_AL_1/0_Brenau_2 
New Line.l(service_drop_house121) Units=km Bus1=b4lv.1.2 Bus2=house_121.1.2 Length=0.027890482832878743 Phases=2 Linecode=1P_UG_AL_1/0_Brenau_2 
New Line.l(service_drop_house96) Units=km Bus1=b4lv.1.2 Bus2=house_96.1.2 Length=0.024222837283795026 Phases=2 Linecode=1P_UG_AL_1/0_Brenau_2 
New Line.l(service_drop_house115) Units=km Bus1=b4lv.1.2 Bus2=house_115.1.2 Length=0.03287489711575738 Phases=2 Linecode=1P_UG_AL_1/0_Brenau_2 
New Line.l(service_drop_house100) Units=km Bus1=b5lv.1.2 Bus2=house_100.1.2 Length=0.04112768064273132 Phases=2 Linecode=1P_UG_AL_1/0_Brenau_2 
New Line.l(service_drop_house26) Units=km Bus1=b5lv.1.2 Bus2=house_26.1.2 Length=0.027936505185710454 Phases=2 Linecode=1P_UG_AL_1/0_Brenau_2 
New Line.l(service_drop_house77) Units=km Bus1=b5lv.1.2 Bus2=house_77.1.2 Length=0.024240312978100646 Phases=2 Linecode=1P_UG_AL_1/0_Brenau_2 
New Line.l(service_drop_house92) Units=km Bus1=b5lv.1.2 Bus2=house_92.1.2 Length=0.02855405059521239 Phases=2 Linecode=1P_UG_AL_1/0_Brenau_2 
New Line.l(service_drop_house109) Units=km Bus1=b5lv.1.2 Bus2=house_109.1.2 Length=0.024584817634397002 Phases=2 Linecode=1P_UG_AL_1/0_Brenau_2 
New Line.l(service_drop_house78) Units=km Bus1=b5lv.1.2 Bus2=house_78.1.2 Length=0.02869194031151821 Phases=2 Linecode=1P_UG_AL_1/0_Brenau_2 
New Line.l(service_drop_house102) Units=km Bus1=b6lv.1.2 Bus2=house_102.1.2 Length=0.037560152000143905 Phases=2 Linecode=1P_UG_AL_1/0_Brenau_2 
New Line.l(service_drop_house75) Units=km Bus1=b6lv.1.2 Bus2=house_75.1.2 Length=0.028055214369291735 Phases=2 Linecode=1P_UG_AL_1/0_Brenau_2 
New Line.l(service_drop_house116) Units=km Bus1=b6lv.1.2 Bus2=house_116.1.2 Length=0.02732865466495176 Phases=2 Linecode=1P_UG_AL_1/0_Brenau_2 
New Line.l(service_drop_house86) Units=km Bus1=b6lv.1.2 Bus2=house_86.1.2 Length=0.029932836442523276 Phases=2 Linecode=1P_UG_AL_1/0_Brenau_2 
New Line.l(service_drop_house52) Units=km Bus1=b6lv.1.2 Bus2=house_52.1.2 Length=0.02493575787952695 Phases=2 Linecode=1P_UG_AL_1/0_Brenau_2 
New Line.l(service_drop_house88) Units=km Bus1=b6lv.1.2 Bus2=house_88.1.2 Length=0.028672030725675444 Phases=2 Linecode=1P_UG_AL_1/0_Brenau_2 
New Line.l(service_drop_house114) Units=km Bus1=b7lv.1.2 Bus2=house_114.1.2 Length=0.0358259513094962 Phases=2 Linecode=1P_UG_AL_1/0_Brenau_2 
New Line.l(service_drop_house90) Units=km Bus1=b7lv.1.2 Bus2=house_90.1.2 Length=0.02687751367497354 Phases=2 Linecode=1P_UG_AL_1/0_Brenau_2 
New Line.l(service_drop_house108) Units=km Bus1=b7lv.1.2 Bus2=house_108.1.2 Length=0.02702389702496266 Phases=2 Linecode=1P_UG_AL_1/0_Brenau_2 
New Line.l(service_drop_house113) Units=km Bus1=b7lv.1.2 Bus2=house_113.1.2 Length=0.025405936867289182 Phases=2 Linecode=1P_UG_AL_1/0_Brenau_2 
New Line.l(service_drop_house22) Units=km Bus1=b7lv.1.2 Bus2=house_22.1.2 Length=0.02963676054613162 Phases=2 Linecode=1P_UG_AL_1/0_Brenau_2 
New Line.l(service_drop_house29) Units=km Bus1=b7lv.1.2 Bus2=house_29.1.2 Length=0.03203906560126755 Phases=2 Linecode=1P_UG_AL_1/0_Brenau_2 
New Line.l(service_drop_house66) Units=km Bus1=b8lv.1.2 Bus2=house_66.1.2 Length=0.02954207564875057 Phases=2 Linecode=1P_UG_AL_1/0_Brenau_2 
New Line.l(service_drop_house9) Units=km Bus1=b8lv.1.2 Bus2=house_9.1.2 Length=0.026232843923746817 Phases=2 Linecode=1P_UG_AL_1/0_Brenau_2 
New Line.l(service_drop_house39) Units=km Bus1=b8lv.1.2 Bus2=house_39.1.2 Length=0.0248807852966446 Phases=2 Linecode=1P_UG_AL_1/0_Brenau_2 
New Line.l(service_drop_house10) Units=km Bus1=b8lv.1.2 Bus2=house_10.1.2 Length=0.03421360988673262 Phases=2 Linecode=1P_UG_AL_1/0_Brenau_2 
New Line.l(service_drop_house44) Units=km Bus1=b8lv.1.2 Bus2=house_44.1.2 Length=0.02948570332794628 Phases=2 Linecode=1P_UG_AL_1/0_Brenau_2 
New Line.l(service_drop_house51) Units=km Bus1=b8lv.1.2 Bus2=house_51.1.2 Length=0.0262034476797889 Phases=2 Linecode=1P_UG_AL_1/0_Brenau_2 
New Line.l(service_drop_house118) Units=km Bus1=b8lv.1.2 Bus2=house_118.1.2 Length=0.02510313534374134 Phases=2 Linecode=1P_UG_AL_1/0_Brenau_2 
New Line.l(service_drop_house6) Units=km Bus1=b9lv.1.2 Bus2=house_6.1.2 Length=0.03839111895067573 Phases=2 Linecode=1P_UG_AL_1/0_Brenau_2 
New Line.l(service_drop_house71) Units=km Bus1=b9lv.1.2 Bus2=house_71.1.2 Length=0.03047291416379132 Phases=2 Linecode=1P_UG_AL_1/0_Brenau_2 
New Line.l(service_drop_house84) Units=km Bus1=b9lv.1.2 Bus2=house_84.1.2 Length=0.024932287171078694 Phases=2 Linecode=1P_UG_AL_1/0_Brenau_2 
New Line.l(service_drop_house19) Units=km Bus1=b9lv.1.2 Bus2=house_19.1.2 Length=0.03297710307181699 Phases=2 Linecode=1P_UG_AL_1/0_Brenau_2 
New Line.l(service_drop_house119) Units=km Bus1=b9lv.1.2 Bus2=house_119.1.2 Length=0.028435373053015876 Phases=2 Linecode=1P_UG_AL_1/0_Brenau_2 
New Line.l(service_drop_house59) Units=km Bus1=b9lv.1.2 Bus2=house_59.1.2 Length=0.025287420743815448 Phases=2 Linecode=1P_UG_AL_1/0_Brenau_2 
New Line.l(service_drop_house110) Units=km Bus1=b9lv.1.2 Bus2=house_110.1.2 Length=0.02595615961051809 Phases=2 Linecode=1P_UG_AL_1/0_Brenau_2 
New Line.l(service_drop_house107) Units=km Bus1=b10lv.1.2 Bus2=house_107.1.2 Length=0.027129245834003522 Phases=2 Linecode=1P_UG_AL_1/0_Brenau_2 
New Line.l(service_drop_house80) Units=km Bus1=b10lv.1.2 Bus2=house_80.1.2 Length=0.031790576930755376 Phases=2 Linecode=1P_UG_AL_1/0_Brenau_2 
New Line.l(service_drop_house61) Units=km Bus1=b10lv.1.2 Bus2=house_61.1.2 Length=0.03791677886081277 Phases=2 Linecode=1P_UG_AL_1/0_Brenau_2 
New Line.l(service_drop_house94) Units=km Bus1=b10lv.1.2 Bus2=house_94.1.2 Length=0.04489075621480157 Phases=2 Linecode=1P_UG_AL_1/0_Brenau_2 
New Line.l(service_drop_house12) Units=km Bus1=b10lv.1.2 Bus2=house_12.1.2 Length=0.03631838402164305 Phases=2 Linecode=1P_UG_AL_1/0_Brenau_2 
New Line.l(service_drop_house91) Units=km Bus1=b10lv.1.2 Bus2=house_91.1.2 Length=0.029031006104847882 Phases=2 Linecode=1P_UG_AL_1/0_Brenau_2 
New Line.l(service_drop_house41) Units=km Bus1=h1lv.1.2 Bus2=house_41.1.2 Length=0.04409790735251465 Phases=2 Linecode=1P_UG_AL_1/0_Brenau_2 
New Line.l(service_drop_house25) Units=km Bus1=h1lv.1.2 Bus2=house_25.1.2 Length=0.027136022203205486 Phases=2 Linecode=1P_UG_AL_1/0_Brenau_2 
New Line.l(service_drop_house95) Units=km Bus1=h1lv.1.2 Bus2=house_95.1.2 Length=0.026206649095084134 Phases=2 Linecode=1P_UG_AL_1/0_Brenau_2 
New Line.l(service_drop_house50) Units=km Bus1=h1lv.1.2 Bus2=house_50.1.2 Length=0.03374259763772809 Phases=2 Linecode=1P_UG_AL_1/0_Brenau_2 
New Line.l(service_drop_house79) Units=km Bus1=h1lv.1.2 Bus2=house_79.1.2 Length=0.02663610510033265 Phases=2 Linecode=1P_UG_AL_1/0_Brenau_2 
New Line.l(service_drop_house36) Units=km Bus1=h1lv.1.2 Bus2=house_36.1.2 Length=0.039431298551520916 Phases=2 Linecode=1P_UG_AL_1/0_Brenau_2 
New Line.l(service_drop_house58) Units=km Bus1=h2lv.1.2 Bus2=house_58.1.2 Length=0.05012581847645695 Phases=2 Linecode=1P_UG_AL_1/0_Brenau_2 
New Line.l(service_drop_house7) Units=km Bus1=h2lv.1.2 Bus2=house_7.1.2 Length=0.0336266018911067 Phases=2 Linecode=1P_UG_AL_1/0_Brenau_2 
New Line.l(service_drop_house101) Units=km Bus1=h2lv.1.2 Bus2=house_101.1.2 Length=0.025789275771461895 Phases=2 Linecode=1P_UG_AL_1/0_Brenau_2 
New Line.l(service_drop_house64) Units=km Bus1=h2lv.1.2 Bus2=house_64.1.2 Length=0.02704978563280228 Phases=2 Linecode=1P_UG_AL_1/0_Brenau_2 
New Line.l(service_drop_house4) Units=km Bus1=h2lv.1.2 Bus2=house_4.1.2 Length=0.03315126902122066 Phases=2 Linecode=1P_UG_AL_1/0_Brenau_2 
New Line.l(service_drop_house42) Units=km Bus1=h2lv.1.2 Bus2=house_42.1.2 Length=0.03338194234413487 Phases=2 Linecode=1P_UG_AL_1/0_Brenau_2 
New Line.l(service_drop_house73) Units=km Bus1=h3lv.1.2 Bus2=house_73.1.2 Length=0.03715976413248359 Phases=2 Linecode=1P_UG_AL_1/0_Brenau_2 
New Line.l(service_drop_house15) Units=km Bus1=h3lv.1.2 Bus2=house_15.1.2 Length=0.03323955196695368 Phases=2 Linecode=1P_UG_AL_1/0_Brenau_2 
New Line.l(service_drop_house35) Units=km Bus1=h3lv.1.2 Bus2=house_35.1.2 Length=0.04423732199577735 Phases=2 Linecode=1P_UG_AL_1/0_Brenau_2 
New Line.l(service_drop_house34) Units=km Bus1=h3lv.1.2 Bus2=house_34.1.2 Length=0.028835393530080307 Phases=2 Linecode=1P_UG_AL_1/0_Brenau_2 
New Line.l(service_drop_house14) Units=km Bus1=h3lv.1.2 Bus2=house_14.1.2 Length=0.04176011837073307 Phases=2 Linecode=1P_UG_AL_1/0_Brenau_2 
New Line.l(service_drop_house112) Units=km Bus1=h4lv.1.2 Bus2=house_112.1.2 Length=0.042010580822794186 Phases=2 Linecode=1P_UG_AL_1/0_Brenau_2 
New Line.l(service_drop_house99) Units=km Bus1=h4lv.1.2 Bus2=house_99.1.2 Length=0.030798459305777223 Phases=2 Linecode=1P_UG_AL_1/0_Brenau_2 
New Line.l(service_drop_house120) Units=km Bus1=h4lv.1.2 Bus2=house_120.1.2 Length=0.02448648816952238 Phases=2 Linecode=1P_UG_AL_1/0_Brenau_2 
New Line.l(service_drop_house68) Units=km Bus1=h4lv.1.2 Bus2=house_68.1.2 Length=0.029764428329078604 Phases=2 Linecode=1P_UG_AL_1/0_Brenau_2 
New Line.l(service_drop_house11) Units=km Bus1=h4lv.1.2 Bus2=house_11.1.2 Length=0.035130808030489846 Phases=2 Linecode=1P_UG_AL_1/0_Brenau_2 
New Line.l(service_drop_house89) Units=km Bus1=h4lv.1.2 Bus2=house_89.1.2 Length=0.029045726139274208 Phases=2 Linecode=1P_UG_AL_1/0_Brenau_2 
New Line.l(service_drop_house46) Units=km Bus1=h5lv.1.2 Bus2=house_46.1.2 Length=0.029309747171397785 Phases=2 Linecode=1P_UG_AL_1/0_Brenau_2 
New Line.l(service_drop_house70) Units=km Bus1=h5lv.1.2 Bus2=house_70.1.2 Length=0.029716159445159995 Phases=2 Linecode=1P_UG_AL_1/0_Brenau_2 
New Line.l(service_drop_house54) Units=km Bus1=h5lv.1.2 Bus2=house_54.1.2 Length=0.04209570116855405 Phases=2 Linecode=1P_UG_AL_1/0_Brenau_2 
New Line.l(service_drop_house38) Units=km Bus1=h5lv.1.2 Bus2=house_38.1.2 Length=0.026698897524419007 Phases=2 Linecode=1P_UG_AL_1/0_Brenau_2 
New Line.l(service_drop_house83) Units=km Bus1=h5lv.1.2 Bus2=house_83.1.2 Length=0.024908499337094988 Phases=2 Linecode=1P_UG_AL_1/0_Brenau_2 
New Line.l(service_drop_house98) Units=km Bus1=h5lv.1.2 Bus2=house_98.1.2 Length=0.02705340494266889 Phases=2 Linecode=1P_UG_AL_1/0_Brenau_2 
New Line.l(service_drop_house67) Units=km Bus1=h6lv.1.2 Bus2=house_67.1.2 Length=0.027013319813826504 Phases=2 Linecode=1P_UG_AL_1/0_Brenau_2 
New Line.l(service_drop_house65) Units=km Bus1=h6lv.1.2 Bus2=house_65.1.2 Length=0.02817277448075828 Phases=2 Linecode=1P_UG_AL_1/0_Brenau_2 
New Line.l(service_drop_house2) Units=km Bus1=h6lv.1.2 Bus2=house_2.1.2 Length=0.031283135956191595 Phases=2 Linecode=1P_UG_AL_1/0_Brenau_2 
New Line.l(service_drop_house1) Units=km Bus1=h6lv.1.2 Bus2=house_1.1.2 Length=0.031578220036544785 Phases=2 Linecode=1P_UG_AL_1/0_Brenau_2 
New Line.l(service_drop_house16) Units=km Bus1=h6lv.1.2 Bus2=house_16.1.2 Length=0.025729230686439692 Phases=2 Linecode=1P_UG_AL_1/0_Brenau_2 
New Line.l(service_drop_house111) Units=km Bus1=h6lv.1.2 Bus2=house_111.1.2 Length=0.028014145460492065 Phases=2 Linecode=1P_UG_AL_1/0_Brenau_2 
New Line.l(service_drop_house45) Units=km Bus1=h7lv.1.2 Bus2=house_45.1.2 Length=0.02821712241515502 Phases=2 Linecode=1P_UG_AL_1/0_Brenau_2 
New Line.l(service_drop_house63) Units=km Bus1=h7lv.1.2 Bus2=house_63.1.2 Length=0.027396953356689957 Phases=2 Linecode=1P_UG_AL_1/0_Brenau_2 
New Line.l(service_drop_house106) Units=km Bus1=h7lv.1.2 Bus2=house_106.1.2 Length=0.034290468022628875 Phases=2 Linecode=1P_UG_AL_1/0_Brenau_2 
New Line.l(service_drop_house74) Units=km Bus1=h7lv.1.2 Bus2=house_74.1.2 Length=0.029214317105597607 Phases=2 Linecode=1P_UG_AL_1/0_Brenau_2 
New Line.l(service_drop_house40) Units=km Bus1=h7lv.1.2 Bus2=house_40.1.2 Length=0.026156445200279533 Phases=2 Linecode=1P_UG_AL_1/0_Brenau_2 
New Line.l(service_drop_house28) Units=km Bus1=h7lv.1.2 Bus2=house_28.1.2 Length=0.0284846215518809 Phases=2 Linecode=1P_UG_AL_1/0_Brenau_2 
New Line.l(service_drop_house104) Units=km Bus1=h8lv.1.2 Bus2=house_104.1.2 Length=0.03226169573698588 Phases=2 Linecode=1P_UG_AL_1/0_Brenau_2 
New Line.l(service_drop_house31) Units=km Bus1=h8lv.1.2 Bus2=house_31.1.2 Length=0.02620463494053293 Phases=2 Linecode=1P_UG_AL_1/0_Brenau_2 
New Line.l(service_drop_house21) Units=km Bus1=h8lv.1.2 Bus2=house_21.1.2 Length=0.027044442472647364 Phases=2 Linecode=1P_UG_AL_1/0_Brenau_2 
New Line.l(service_drop_house5) Units=km Bus1=h8lv.1.2 Bus2=house_5.1.2 Length=0.030080751349026845 Phases=2 Linecode=1P_UG_AL_1/0_Brenau_2 
New Line.l(service_drop_house62) Units=km Bus1=h8lv.1.2 Bus2=house_62.1.2 Length=0.03706074847266682 Phases=2 Linecode=1P_UG_AL_1/0_Brenau_2 
New Line.l(service_drop_house24) Units=km Bus1=h8lv.1.2 Bus2=house_24.1.2 Length=0.027556352688353138 Phases=2 Linecode=1P_UG_AL_1/0_Brenau_2 
New Line.l(service_drop_house97) Units=km Bus1=h8lv.1.2 Bus2=house_97.1.2 Length=0.028641618389870303 Phases=2 Linecode=1P_UG_AL_1/0_Brenau_2 
New Line.l(service_drop_house76) Units=km Bus1=h9lv.1.2 Bus2=house_76.1.2 Length=0.02909083162551266 Phases=2 Linecode=1P_UG_AL_1/0_Brenau_2 
New Line.l(service_drop_house18) Units=km Bus1=h9lv.1.2 Bus2=house_18.1.2 Length=0.02620510756643545 Phases=2 Linecode=1P_UG_AL_1/0_Brenau_2 
New Line.l(service_drop_house32) Units=km Bus1=h9lv.1.2 Bus2=house_32.1.2 Length=0.025415846296758266 Phases=2 Linecode=1P_UG_AL_1/0_Brenau_2 
New Line.l(service_drop_house33) Units=km Bus1=h9lv.1.2 Bus2=house_33.1.2 Length=0.026901825745423293 Phases=2 Linecode=1P_UG_AL_1/0_Brenau_2 
New Line.l(service_drop_house72) Units=km Bus1=h9lv.1.2 Bus2=house_72.1.2 Length=0.028143170807005815 Phases=2 Linecode=1P_UG_AL_1/0_Brenau_2 
New Line.l(service_drop_house87) Units=km Bus1=h9lv.1.2 Bus2=house_87.1.2 Length=0.028853490748143234 Phases=2 Linecode=1P_UG_AL_1/0_Brenau_2 
New Line.l(service_drop_house81) Units=km Bus1=h10lv.1.2 Bus2=house_81.1.2 Length=0.03245250793665282 Phases=2 Linecode=1P_UG_AL_1/0_Brenau_2 
New Line.l(service_drop_house55) Units=km Bus1=h10lv.1.2 Bus2=house_55.1.2 Length=0.02485112922245059 Phases=2 Linecode=1P_UG_AL_1/0_Brenau_2 
New Line.l(service_drop_house17) Units=km Bus1=h10lv.1.2 Bus2=house_17.1.2 Length=0.03058335738084343 Phases=2 Linecode=1P_UG_AL_1/0_Brenau_2 
New Line.l(service_drop_house3) Units=km Bus1=h10lv.1.2 Bus2=house_3.1.2 Length=0.03700477226451883 Phases=2 Linecode=1P_UG_AL_1/0_Brenau_2 
New Line.l(service_drop_house27) Units=km Bus1=h10lv.1.2 Bus2=house_27.1.2 Length=0.04366277729141546 Phases=2 Linecode=1P_UG_AL_1/0_Brenau_2 