DSS_Fox_chase/Transformers.dss
New Transformer.tr(b1-b1lv) phases=1 windings=3 %loadloss=0.798816 %Noloadloss=0.37 normhkva=55.0 wdg=1 conn=wye bus=b1.2 Kv=7.2 kva=50 EmergHKVA=75.0 %r=0.266272 wdg=2 conn=wye bus=b1lv.1.0 Kv=0.12 kva=50 EmergHKVA=75.0 %r=0.532544 wdg=3 conn=wye bus=b1lv.0.2 Kv=0.12 kva=50 EmergHKVA=75.0 %r=0.532544 XHL=2.4 XLT=2.4 XHT=1.6
New Transformer.tr(b2-b2lv) phases=1 windings=3 %loadloss=0.798816 %Noloadloss=0.37 normhkva=55.0 wdg=1 conn=wye bus=b2.2 Kv=7.2 kva=50 EmergHKVA=75.0 %r=0.266272 wdg=2 conn=wye bus=b2lv.1.0 Kv=0.12 kva=50 EmergHKVA=75.0 %r=0.532544 wdg=3 conn=wye bus=b2lv.0.2 Kv=0.12 kva=50 EmergHKVA=75.0 %r=0.532544 XHL=2.4 XLT=2.4 XHT=1.6
New Transformer.tr(b3-b3lv) phases=1 windings=3 %loadloss=0.798816 %Noloadloss=0.37 normhkva=55.0 wdg=1 conn=wye bus=b3.2 Kv=7.2 kva=50 EmergHKVA=75.0 %r=0.266272 wdg=2 conn=wye bus=b3lv.1.0 Kv=0.12 kva=50 EmergHKVA=75.0 %r=0.532544 wdg=3 conn=wye bus=b3lv.0.2 Kv=0.12 kva=50 EmergHKVA=75.0 %r=0.532544 XHL=2.4 XLT=2.4 XHT=1.6
New Transformer.tr(b4-b4lv) phases=1 windings=3 %loadloss=0.798816 %Noloadloss=0.37 normhkva=55.0 wdg=1 conn=wye bus=b4.2 Kv=7.2 kva=50 EmergHKVA=75.0 %r=0.266272 wdg=2 conn=wye bus=b4lv.1.0 Kv=0.12 kva=50 EmergHKVA=75.0 %r=0.532544 wdg=3 conn=wye bus=b4lv.0.2 Kv=0.12 kva=50 EmergHKVA=75.0 %r=0.532544 XHL=2.4 XLT=2.4 XHT=1.6
New Transformer.tr(b5-b5lv) phases=1 windings=3 %loadloss=0.798816 %Noloadloss=0.37 normhkva=55.0 wdg=1 conn=wye bus=b5.2 Kv=7.2 kva=50 EmergHKVA=75.0 %r=0.266272 wdg=2 conn=wye bus=b5lv.1.0 Kv=0.12 kva=50 EmergHKVA=75.0 %r=0.532544 wdg=3 conn=wye bus=b5lv.0.2 Kv=0.12 kva=50 EmergHKVA=75.0 %r=0.532544 XHL=2.4 XLT=2.4 XHT=1.6
New Transformer.tr(b6-b6lv) phases=1 windings=3 %loadloss=0.798816 %Noloadloss=0.37 normhkva=55.0 wdg=1 conn=wye bus=b6.2 Kv=7.2 kva=50 EmergHKVA=75.0 %r=0.266272 wdg=2 conn=wye bus=b6lv.1.0 Kv=0.12 kva=50 EmergHKVA=75.0 %r=0.532544 wdg=3 conn=wye bus=b6lv.0.2 Kv=0.12 kva=50 EmergHKVA=75.0 %r=0.532544 XHL=2.4 XLT=2.4 XHT=1.6
New Transformer.tr(b7-b7lv) phases=1 windings=3 %loadloss=0.798816 %Noloadloss=0.37 normhkva=55.0 wdg=1 conn=wye bus=b7.2 Kv=7.2 kva=50 EmergHKVA=75.0 %r=0.266272 wdg=2 conn=wye bus=b7lv.1.0 Kv=0.12 kva=50 EmergHKVA=75.0 %r=0.532544 wdg=3 conn=wye bus=b7lv.0.2 Kv=0.12 kva=50 EmergHKVA=75.0 %r=0.532544 XHL=2.4 XLT=2.4 XHT=1.6
New Transformer.tr(b8-b8lv) phases=1 windings=3 %loadloss=0.798816 %Noloadloss=0.37 normhkva=55.0 wdg=1 conn=wye bus=b8.2 Kv=7.2 kva=50 EmergHKVA=75.0 %r=0.266272 wdg=2 conn=wye bus=b8lv.1.0 Kv=0.12 kva=50 EmergHKVA=75.0 %r=0.532544 wdg=3 conn=wye bus=b8lv.0.2 Kv=0.12 kva=50 EmergHKVA=75.0 %r=0.532544 XHL=2.4 XLT=2.4 XHT=1.6
New Transformer.tr(b9-b9lv) phases=1 windings=3 %loadloss=0.798816 %Noloadloss=0.37 normhkva=55.0 wdg=1 conn=wye bus=b9.2 Kv=7.2 kva=50 EmergHKVA=75.0 %r=0.266272 wdg=2 conn=wye bus=b9lv.1.0 Kv=0.12 kva=50 EmergHKVA=75.0 %r=0.532544 wdg=3 conn=wye bus=b9lv.0.2 Kv=0.12 kva=50 EmergHKVA=75.0 %r=0.532544 XHL=2.4 XLT=2.4 XHT=1.6
New Transformer.tr(b10-b10lv) phases=1 windings=3 %loadloss=0.798816 %Noloadloss=0.37 normhkva=55.0 wdg=1 conn=wye bus=b10.2 Kv=7.2 kva=50 EmergHKVA=75.0 %r=0.266272 wdg=2 conn=wye bus=b10lv.1.0 Kv=0.12 kva=50 EmergHKVA=75.0 %r=0.532544 wdg=3 conn=wye bus=b10lv.0.2 Kv=0.12 kva=50 EmergHKVA=75.0 %r=0.532544 XHL=2.4 XLT=2.4 XHT=1.6
New Transformer.tr(h1-h1lv) phases=1 windings=3 %loadloss=0.798816 %Noloadloss=0.37 normhkva=55.0 wdg=1 conn=wye bus=h1.1 Kv=7.2 kva=50 EmergHKVA=75.0 %r=0.266272 wdg=2 conn=wye bus=h1lv.1.0 Kv=0.12 kva=50 EmergHKVA=75.0 %r=0.532544 wdg=3 conn=wye bus=h1lv.0.2 Kv=0.12 kva=50 EmergHKVA=75.0 %r=0.532544 XHL=2.4 XLT=2.4 XHT=1.6
New Transformer.tr(h2-h2lv) phases=1 windings=3 %loadloss=0.798816 %Noloadloss=0.37 normhkva=55.0 wdg=1 conn=wye bus=h2.1 Kv=7.2 kva=50 EmergHKVA=75.0 %r=0.266272 wdg=2 conn=wye bus=h2lv.1.0 Kv=0.12 kva=50 EmergHKVA=75.0 %r=0.532544 wdg=3 conn=wye bus=h2lv.0.2 Kv=0.12 kva=50 EmergHKVA=75.0 %r=0.532544 XHL=2.4 XLT=2.4 XHT=1.6
New Transformer.tr(h3-h3lv) phases=1 windings=3 %loadloss=0.798816 %Noloadloss=0.37 normhkva=55.0 wdg=1 conn=wye bus=h3.1 Kv=7.2 kva=50 EmergHKVA=75.0 %r=0.266272 wdg=2 conn=wye bus=h3lv.1.0 Kv=0.12 kva=50 EmergHKVA=75.0 %r=0.532544 wdg=3 conn=wye bus=h3lv.0.2 Kv=0.12 kva=50 EmergHKVA=75.0 %r=0.532544 XHL=2.4 XLT=2.4 XHT=1.6
New Transformer.tr(h4-h4lv) phases=1 windings=3 %loadloss=0.798816 %Noloadloss=0.37 normhkva=55.0 wdg=1 conn=wye bus=h4.1 Kv=7.2 kva=50 EmergHKVA=75.0 %r=0.266272 wdg=2 conn=wye bus=h4lv.1.0 Kv=0.12 kva=50 EmergHKVA=75.0 %r=0.532544 wdg=3 conn=wye bus=h4lv.0.2 Kv=0.12 kva=50 EmergHKVA=75.0 %r=0.532544 XHL=2.4 XLT=2.4 XHT=1.6
New Transformer.tr(h5-h5lv) phases=1 windings=3 %loadloss=0.798816 %Noloadloss=0.37 normhkva=55.0 wdg=1 conn=wye bus=h5.1 Kv=7.2 kva=50 EmergHKVA=75.0 %r=0.266272 wdg=2 conn=wye bus=h5lv.1.0 Kv=0.12 kva=50 EmergHKVA=75.0 %r=0.532544 wdg=3 conn=wye bus=h5lv.0.2 Kv=0.12 kva=50 EmergHKVA=75.0 %r=0.532544 XHL=2.4 XLT=2.4 XHT=1.6
New Transformer.tr(h6-h6lv) phases=1 windings=3 %loadloss=0.798816 %Noloadloss=0.37 normhkva=55.0 wdg=1 conn=wye bus=h6.1 Kv=7.2 kva=50 EmergHKVA=75.0 %r=0.266272 wdg=2 conn=wye bus=h6lv.1.0 Kv=0.12 kva=50 EmergHKVA=75.0 %r=0.532544 wdg=3 conn=wye bus=h6lv.0.2 Kv=0.12 kva=50 EmergHKVA=75.0 %r=0.532544 XHL=2.4 XLT=2.4 XHT=1.6
New Transformer.tr(h7-h7lv) phases=1 windings=3 %loadloss=0.798816 %Noloadloss=0.37 normhkva=55.0 wdg=1 conn=wye bus=h7.1 Kv=7.2 kva=50 EmergHKVA=75.0 %r=0.266272 wdg=2 conn=wye bus=h7lv.1.0 Kv=0.12 kva=50 EmergHKVA=75.0 %r=0.532544 wdg=3 conn=wye bus=h7lv.0.2 Kv=0.12 kva=50 EmergHKVA=75.0 %r=0.532544 XHL=2.4 XLT=2.4 XHT=1.6
New Transformer.tr(h8-h8lv) phases=1 windings=3 %loadloss=0.798816 %Noloadloss=0.37 normhkva=55.0 wdg=1 conn=wye bus=h8.1 Kv=7.2 kva=50 EmergHKVA=75.0 %r=0.266272 wdg=2 conn=wye bus=h8lv.1.0 Kv=0.12 kva=50 EmergHKVA=75.0 %r=0.532544 wdg=3 conn=wye bus=h8lv.0.2 Kv=0.12 kva=50 EmergHKVA=75.0 %r=0.532544 XHL=2.4 XLT=2.4 XHT=1.6
New Transformer.tr(h9-h9lv) phases=1 windings=3 %loadloss=0.798816 %Noloadloss=0.37 normhkva=55.0 wdg=1 conn=wye bus=h9.1 Kv=7.2 kva=50 EmergHKVA=75.0 %r=0.266272 wdg=2 conn=wye bus=h9lv.1.0 Kv=0.12 kva=50 EmergHKVA=75.0 %r=0.532544 wdg=3 conn=wye bus=h9lv.0.2 Kv=0.12 kva=50 EmergHKVA=75.0 %r=0.532544 XHL=2.4 XLT=2.4 XHT=1.6
New Transformer.tr(h10-h10lv) phases=1 windings=3 %loadloss=0.798816 %Noloadloss=0.37 normhkva=55.0 wdg=1 conn=wye bus=h10.1 Kv=7.2 kva=50 EmergHKVA=75.0 %r=0.266272 wdg=2 conn=wye bus=h10lv.1.0 Kv=0.12 kva=50 EmergHKVA=75.0 %r=0.532544 wdg=3 conn=wye bus=h10lv.0.2 Kv=0.12 kva=50 EmergHKVA=75.0 %r=0.532544 XHL=2.4 XLT=2.4 XHT=1.6